# Example "data.mnc" file
# Lines beginning "#" are comments
 &MNC_01
 mnc_use_outdir=.TRUE.,
 mnc_outdir_str='mnc_test_',
 monitor_mnc=.TRUE.,
 pickup_write_mnc=.FALSE.,
 pickup_read_mnc=.FALSE.,
 readgrid_mnc=.FALSE.,
 &
# Note: Some systems use & as the
# namelist terminator. Other systems
# use a / character (as shown here).
